Circuit: * C:\Users\juane\Desktop\Projects\STPedal\STPedal\LTSpice\Differential_OpAmp_Buffer.asc

Early termination of direct N-R iteration.
Direct Newton iteration failed to find .op point.  (Use ".option noopiter" to skip.)
Starting Gmin stepping
Gmin = 10
vernier = 0.5
vernier = 0.25
vernier = 0.125
Gmin = 5.5165
vernier = 0.0625
vernier = 0.03125
vernier = 0.015625
vernier = 0.0078125
Gmin = 5.49501
vernier = 0.00390625
vernier = 0.00195312
vernier = 0.000976562
vernier = 0.000488281
Gmin = 5.50104
Gmin = 0
Gmin stepping succeeded in finding the operating point.


Date: Sun Jun 21 23:29:20 2026
Total elapsed time: 0.518 seconds.

tnom = 27
temp = 27
method = modified trap
totiter = 9077
traniter = 7536
tranpoints = 3513
accept = 2385
rejected = 1128
matrix size = 84
fillins = 561
solver = Normal
Avg thread counts: 2.0/3.1/3.1/2.0
Matrix Compiler1: 47.07 KB object code size  8.1/5.7/[2.1]
Matrix Compiler2: 16.72 KB object code size  4.1/2.5/[0.8]

